12
log/benzene_mp2_augccpvtz.log	Energy: -144817.4059968
C          1.20760        0.69712        0.00000
C         -0.00044        1.39387        0.00000
C         -1.20772        0.69717        0.00000
C         -1.20748       -0.69729        0.00000
C          0.00000       -1.39386        0.00000
C          1.20788       -0.69677        0.00000
H          0.00066        2.47609        0.00000
H         -2.14495        1.23821        0.00000
H         -2.14426       -1.23911        0.00000
H          0.00039       -2.47608        0.00000
H          2.14441       -1.23904        0.00000
H          2.14470        1.23843        0.00000
