7
log/cis-mesno_pbe_def2svpd.log	Energy: -356055.5121473
O         -0.77699       -1.47664        0.00000
N         -1.20315       -0.37459        0.00000
S          0.00000        0.93694        0.00000
C          1.52009       -0.00008        0.00000
H          2.35376        0.72040        0.00000
H          1.58186       -0.63786        0.89773
H          1.58186       -0.63786       -0.89773
