7
../log/cis-mesno_b3lyp_augccpvdz.log	Energy: -356455.3581721
O         -0.78314       -1.51103        0.00000
N         -1.23365       -0.41121        0.00000
S          0.00000        0.96188        0.00000
C          1.55170        0.01196        0.00000
H          2.37297        0.73804        0.00000
H          1.60874       -0.61656        0.89696
H          1.60874       -0.61656       -0.89696
