6
log/methanethiol_mp2_augccpvtz.log	Energy: -274697.0827913
S         -0.04777       -0.66428        0.00000
H          1.27953       -0.82068        0.00000
C         -0.04777        1.15186        0.00000
H         -1.09214        1.45300        0.00000
H          0.43174        1.54252        0.89235
H          0.43174        1.54252       -0.89235
