6
log/methanethiol_pbe_def2svp.log	Energy: -275063.7290389
S         -0.04773       -0.66177        0.00000
H          1.29384       -0.82484        0.00000
C         -0.04773        1.14165        0.00000
H         -1.10579        1.45000        0.00000
H          0.43105        1.55662        0.90204
H          0.43105        1.55662       -0.90204
