6
log/methanol_mp2_augccpvtz.log	Energy:  -72221.3422390
O         -0.04675       -0.75768        0.00000
H          0.86721       -1.05519        0.00000
C         -0.04675        0.66594        0.00000
H         -1.08763        0.97546        0.00000
H          0.43745        1.07275        0.88932
H          0.43745        1.07275       -0.88932
