5
log/methanimine_pbe_def2svp.log	Energy:  -59256.0994819
C          0.05632        0.58146        0.00000
H         -0.84872        1.22283        0.00000
H          1.02200        1.11653        0.00000
N          0.05632       -0.68320        0.00000
H         -0.90546       -1.04569        0.00000
