7
../log/trans-mesno_b3lyp_augccpvdz.log	Energy: -356454.0524008
O         -1.69255       -1.18128        0.00000
N         -0.52389       -0.99170        0.00000
S          0.00000        0.78813        0.00000
C          1.79320        0.43611        0.00000
H          2.30432        1.40623        0.00000
H          2.07205       -0.12042        0.90130
H          2.07205       -0.12042       -0.90130
